*SiPM with 3600 cells
.subckt SiPM V_in V_out
.MODEL switch VSWITCH(Ron=1 Roff=385G Von=1V Voff=0V)
CG 2 V_out 2.74047E-11
RB V_in 1 3.27009
LB 1 2 4.71866E-9
RQ0 2 3_0 143784.0
CQ0 2 3_0 6.28393E-15
CD0 3_0 V_out 8.329000000000002E-14
Sw0 3_0 V_out 4_0 0 switch
V0_0 4_0 5_0_0 PULSE(0V 3V 1.5E-9 1e-20 1e-20 1e-12)
RS0_0 5_0_0 0 1
V0_1 4_0 5_0_1 PULSE(0V 3V 3.4E-9 1e-20 1e-20 1e-12)
RS0_1 5_0_1 0 1
RQ1 2 3_1 143784.0
CQ1 2 3_1 6.28393E-15
CD1 3_1 V_out 8.329000000000002E-14
Sw1 3_1 V_out 4_1 0 switch
V1_0 4_1 5_1_0 PULSE(0V 3V 1.3E-9 1e-20 1e-20 1e-12)
RS1_0 5_1_0 0 1
V1_1 4_1 5_1_1 PULSE(0V 3V 1.2E-9 1e-20 1e-20 1e-12)
RS1_1 5_1_1 0 1
RQ2 2 3_2 143784.0
CQ2 2 3_2 6.28393E-15
CD2 3_2 V_out 8.329000000000002E-14
Sw2 3_2 V_out 4_2 0 switch
V2_0 4_2 5_2_0 PULSE(0V 2V 4.5E-9 1e-20 1e-20 1e-12)
RS2_0 5_2_0 0 1
RQ3 2 3_3 143784.0
CQ3 2 3_3 6.28393E-15
CD3 3_3 V_out 8.329000000000002E-14
Sw3 3_3 V_out 4_3 0 switch
V3_0 4_3 5_3_0 PULSE(0V 2V 2.0E-8 1e-20 1e-20 1e-12)
RS3_0 5_3_0 0 1
RQ4 2 3_4 143784.0
CQ4 2 3_4 6.28393E-15
CD4 3_4 V_out 8.329000000000002E-14
Sw4 3_4 V_out 4_4 0 switch
V4_0 4_4 5_4_0 PULSE(0V 2V 2.0E-8 1e-20 1e-20 1e-12)
RS4_0 5_4_0 0 1
RQ5 2 3_5 143784.0
CQ5 2 3_5 6.28393E-15
CD5 3_5 V_out 8.329000000000002E-14
Sw5 3_5 V_out 4_5 0 switch
V5_0 4_5 5_5_0 PULSE(0V 2V 2.0E-8 1e-20 1e-20 1e-12)
RS5_0 5_5_0 0 1
RQ6 2 3_6 143784.0
CQ6 2 3_6 6.28393E-15
CD6 3_6 V_out 8.329000000000002E-14
Sw6 3_6 V_out 4_6 0 switch
V6_0 4_6 5_6_0 PULSE(0V 2V 2.0E-8 1e-20 1e-20 1e-12)
RS6_0 5_6_0 0 1
RQ7 2 3_7 143784.0
CQ7 2 3_7 6.28393E-15
CD7 3_7 V_out 8.329000000000002E-14
Sw7 3_7 V_out 4_7 0 switch
V7_0 4_7 5_7_0 PULSE(0V 2V 2.0E-8 1e-20 1e-20 1e-12)
RS7_0 5_7_0 0 1
RQ8 2 3_8 143784.0
CQ8 2 3_8 6.28393E-15
CD8 3_8 V_out 8.329000000000002E-14
Sw8 3_8 V_out 4_8 0 switch
V8_0 4_8 5_8_0 PULSE(0V 2V 2.0E-8 1e-20 1e-20 1e-12)
RS8_0 5_8_0 0 1
RQ9 2 3_9 143784.0
CQ9 2 3_9 6.28393E-15
CD9 3_9 V_out 8.329000000000002E-14
Sw9 3_9 V_out 4_9 0 switch
V9_0 4_9 5_9_0 PULSE(0V 2V 2.0E-8 1e-20 1e-20 1e-12)
RS9_0 5_9_0 0 1
RQ10 2 3_10 143784.0
CQ10 2 3_10 6.28393E-15
CD10 3_10 V_out 8.329000000000002E-14
Sw10 3_10 V_out 4_10 0 switch
V10_0 4_10 5_10_0 PULSE(0V 2V 2.0E-8 1e-20 1e-20 1e-12)
RS10_0 5_10_0 0 1
RQ11 2 3_11 143784.0
CQ11 2 3_11 6.28393E-15
CD11 3_11 V_out 8.329000000000002E-14
Sw11 3_11 V_out 4_11 0 switch
RS11_G 4_11 0 1
RQ12 2 3_12 143784.0
CQ12 2 3_12 6.28393E-15
CD12 3_12 V_out 8.329000000000002E-14
Sw12 3_12 V_out 4_12 0 switch
RS12_G 4_12 0 1
RQ13 2 3_13 143784.0
CQ13 2 3_13 6.28393E-15
CD13 3_13 V_out 8.329000000000002E-14
Sw13 3_13 V_out 4_13 0 switch
RS13_G 4_13 0 1
RQ14 2 3_14 143784.0
CQ14 2 3_14 6.28393E-15
CD14 3_14 V_out 8.329000000000002E-14
Sw14 3_14 V_out 4_14 0 switch
RS14_G 4_14 0 1
RQ15 2 3_15 143784.0
CQ15 2 3_15 6.28393E-15
CD15 3_15 V_out 8.329000000000002E-14
Sw15 3_15 V_out 4_15 0 switch
RS15_G 4_15 0 1
RQ16 2 3_16 143784.0
CQ16 2 3_16 6.28393E-15
CD16 3_16 V_out 8.329000000000002E-14
Sw16 3_16 V_out 4_16 0 switch
RS16_G 4_16 0 1
RQ17 2 3_17 143784.0
CQ17 2 3_17 6.28393E-15
CD17 3_17 V_out 8.329000000000002E-14
Sw17 3_17 V_out 4_17 0 switch
RS17_G 4_17 0 1
RQ18 2 3_18 143784.0
CQ18 2 3_18 6.28393E-15
CD18 3_18 V_out 8.329000000000002E-14
Sw18 3_18 V_out 4_18 0 switch
RS18_G 4_18 0 1
RQ19 2 3_19 143784.0
CQ19 2 3_19 6.28393E-15
CD19 3_19 V_out 8.329000000000002E-14
Sw19 3_19 V_out 4_19 0 switch
RS19_G 4_19 0 1
RQ20 2 3_20 143784.0
CQ20 2 3_20 6.28393E-15
CD20 3_20 V_out 8.329000000000002E-14
Sw20 3_20 V_out 4_20 0 switch
RS20_G 4_20 0 1
RQ21 2 3_21 143784.0
CQ21 2 3_21 6.28393E-15
CD21 3_21 V_out 8.329000000000002E-14
Sw21 3_21 V_out 4_21 0 switch
RS21_G 4_21 0 1
RQ22 2 3_22 143784.0
CQ22 2 3_22 6.28393E-15
CD22 3_22 V_out 8.329000000000002E-14
Sw22 3_22 V_out 4_22 0 switch
RS22_G 4_22 0 1
RQ23 2 3_23 143784.0
CQ23 2 3_23 6.28393E-15
CD23 3_23 V_out 8.329000000000002E-14
Sw23 3_23 V_out 4_23 0 switch
RS23_G 4_23 0 1
RQ24 2 3_24 143784.0
CQ24 2 3_24 6.28393E-15
CD24 3_24 V_out 8.329000000000002E-14
Sw24 3_24 V_out 4_24 0 switch
RS24_G 4_24 0 1
RQ25 2 3_25 143784.0
CQ25 2 3_25 6.28393E-15
CD25 3_25 V_out 8.329000000000002E-14
Sw25 3_25 V_out 4_25 0 switch
RS25_G 4_25 0 1
RQ26 2 3_26 143784.0
CQ26 2 3_26 6.28393E-15
CD26 3_26 V_out 8.329000000000002E-14
Sw26 3_26 V_out 4_26 0 switch
RS26_G 4_26 0 1
RQ27 2 3_27 143784.0
CQ27 2 3_27 6.28393E-15
CD27 3_27 V_out 8.329000000000002E-14
Sw27 3_27 V_out 4_27 0 switch
RS27_G 4_27 0 1
RQ28 2 3_28 143784.0
CQ28 2 3_28 6.28393E-15
CD28 3_28 V_out 8.329000000000002E-14
Sw28 3_28 V_out 4_28 0 switch
RS28_G 4_28 0 1
RQ29 2 3_29 143784.0
CQ29 2 3_29 6.28393E-15
CD29 3_29 V_out 8.329000000000002E-14
Sw29 3_29 V_out 4_29 0 switch
RS29_G 4_29 0 1
RQ30 2 3_30 143784.0
CQ30 2 3_30 6.28393E-15
CD30 3_30 V_out 8.329000000000002E-14
Sw30 3_30 V_out 4_30 0 switch
RS30_G 4_30 0 1
RQ31 2 3_31 143784.0
CQ31 2 3_31 6.28393E-15
CD31 3_31 V_out 8.329000000000002E-14
Sw31 3_31 V_out 4_31 0 switch
RS31_G 4_31 0 1
RQ32 2 3_32 143784.0
CQ32 2 3_32 6.28393E-15
CD32 3_32 V_out 8.329000000000002E-14
Sw32 3_32 V_out 4_32 0 switch
RS32_G 4_32 0 1
RQ33 2 3_33 143784.0
CQ33 2 3_33 6.28393E-15
CD33 3_33 V_out 8.329000000000002E-14
Sw33 3_33 V_out 4_33 0 switch
RS33_G 4_33 0 1
RQ34 2 3_34 143784.0
CQ34 2 3_34 6.28393E-15
CD34 3_34 V_out 8.329000000000002E-14
Sw34 3_34 V_out 4_34 0 switch
RS34_G 4_34 0 1
RQ35 2 3_35 143784.0
CQ35 2 3_35 6.28393E-15
CD35 3_35 V_out 8.329000000000002E-14
Sw35 3_35 V_out 4_35 0 switch
RS35_G 4_35 0 1
RQ36 2 3_36 143784.0
CQ36 2 3_36 6.28393E-15
CD36 3_36 V_out 8.329000000000002E-14
Sw36 3_36 V_out 4_36 0 switch
RS36_G 4_36 0 1
RQ37 2 3_37 143784.0
CQ37 2 3_37 6.28393E-15
CD37 3_37 V_out 8.329000000000002E-14
Sw37 3_37 V_out 4_37 0 switch
RS37_G 4_37 0 1
RQ38 2 3_38 143784.0
CQ38 2 3_38 6.28393E-15
CD38 3_38 V_out 8.329000000000002E-14
Sw38 3_38 V_out 4_38 0 switch
RS38_G 4_38 0 1
RQ39 2 3_39 143784.0
CQ39 2 3_39 6.28393E-15
CD39 3_39 V_out 8.329000000000002E-14
Sw39 3_39 V_out 4_39 0 switch
RS39_G 4_39 0 1
RQ40 2 3_40 143784.0
CQ40 2 3_40 6.28393E-15
CD40 3_40 V_out 8.329000000000002E-14
Sw40 3_40 V_out 4_40 0 switch
RS40_G 4_40 0 1
RQ41 2 3_41 143784.0
CQ41 2 3_41 6.28393E-15
CD41 3_41 V_out 8.329000000000002E-14
Sw41 3_41 V_out 4_41 0 switch
RS41_G 4_41 0 1
RQ42 2 3_42 143784.0
CQ42 2 3_42 6.28393E-15
CD42 3_42 V_out 8.329000000000002E-14
Sw42 3_42 V_out 4_42 0 switch
RS42_G 4_42 0 1
RQ43 2 3_43 143784.0
CQ43 2 3_43 6.28393E-15
CD43 3_43 V_out 8.329000000000002E-14
Sw43 3_43 V_out 4_43 0 switch
RS43_G 4_43 0 1
RQ44 2 3_44 143784.0
CQ44 2 3_44 6.28393E-15
CD44 3_44 V_out 8.329000000000002E-14
Sw44 3_44 V_out 4_44 0 switch
RS44_G 4_44 0 1
RQ45 2 3_45 143784.0
CQ45 2 3_45 6.28393E-15
CD45 3_45 V_out 8.329000000000002E-14
Sw45 3_45 V_out 4_45 0 switch
RS45_G 4_45 0 1
RQ46 2 3_46 143784.0
CQ46 2 3_46 6.28393E-15
CD46 3_46 V_out 8.329000000000002E-14
Sw46 3_46 V_out 4_46 0 switch
RS46_G 4_46 0 1
RQ47 2 3_47 143784.0
CQ47 2 3_47 6.28393E-15
CD47 3_47 V_out 8.329000000000002E-14
Sw47 3_47 V_out 4_47 0 switch
RS47_G 4_47 0 1
RQ48 2 3_48 143784.0
CQ48 2 3_48 6.28393E-15
CD48 3_48 V_out 8.329000000000002E-14
Sw48 3_48 V_out 4_48 0 switch
RS48_G 4_48 0 1
RQ49 2 3_49 143784.0
CQ49 2 3_49 6.28393E-15
CD49 3_49 V_out 8.329000000000002E-14
Sw49 3_49 V_out 4_49 0 switch
RS49_G 4_49 0 1
RQ50 2 3_50 143784.0
CQ50 2 3_50 6.28393E-15
CD50 3_50 V_out 8.329000000000002E-14
Sw50 3_50 V_out 4_50 0 switch
RS50_G 4_50 0 1
RQ51 2 3_51 143784.0
CQ51 2 3_51 6.28393E-15
CD51 3_51 V_out 8.329000000000002E-14
Sw51 3_51 V_out 4_51 0 switch
RS51_G 4_51 0 1
RQ52 2 3_52 143784.0
CQ52 2 3_52 6.28393E-15
CD52 3_52 V_out 8.329000000000002E-14
Sw52 3_52 V_out 4_52 0 switch
RS52_G 4_52 0 1
RQ53 2 3_53 143784.0
CQ53 2 3_53 6.28393E-15
CD53 3_53 V_out 8.329000000000002E-14
Sw53 3_53 V_out 4_53 0 switch
RS53_G 4_53 0 1
RQ54 2 3_54 143784.0
CQ54 2 3_54 6.28393E-15
CD54 3_54 V_out 8.329000000000002E-14
Sw54 3_54 V_out 4_54 0 switch
RS54_G 4_54 0 1
RQ55 2 3_55 143784.0
CQ55 2 3_55 6.28393E-15
CD55 3_55 V_out 8.329000000000002E-14
Sw55 3_55 V_out 4_55 0 switch
RS55_G 4_55 0 1
RQ56 2 3_56 143784.0
CQ56 2 3_56 6.28393E-15
CD56 3_56 V_out 8.329000000000002E-14
Sw56 3_56 V_out 4_56 0 switch
RS56_G 4_56 0 1
RQ57 2 3_57 143784.0
CQ57 2 3_57 6.28393E-15
CD57 3_57 V_out 8.329000000000002E-14
Sw57 3_57 V_out 4_57 0 switch
RS57_G 4_57 0 1
RQ58 2 3_58 143784.0
CQ58 2 3_58 6.28393E-15
CD58 3_58 V_out 8.329000000000002E-14
Sw58 3_58 V_out 4_58 0 switch
RS58_G 4_58 0 1
RQ59 2 3_59 143784.0
CQ59 2 3_59 6.28393E-15
CD59 3_59 V_out 8.329000000000002E-14
Sw59 3_59 V_out 4_59 0 switch
RS59_G 4_59 0 1
RQ60 2 3_60 143784.0
CQ60 2 3_60 6.28393E-15
CD60 3_60 V_out 8.329000000000002E-14
Sw60 3_60 V_out 4_60 0 switch
RS60_G 4_60 0 1
RQ61 2 3_61 143784.0
CQ61 2 3_61 6.28393E-15
CD61 3_61 V_out 8.329000000000002E-14
Sw61 3_61 V_out 4_61 0 switch
RS61_G 4_61 0 1
RQ62 2 3_62 143784.0
CQ62 2 3_62 6.28393E-15
CD62 3_62 V_out 8.329000000000002E-14
Sw62 3_62 V_out 4_62 0 switch
RS62_G 4_62 0 1
RQ63 2 3_63 143784.0
CQ63 2 3_63 6.28393E-15
CD63 3_63 V_out 8.329000000000002E-14
Sw63 3_63 V_out 4_63 0 switch
RS63_G 4_63 0 1
RQ64 2 3_64 143784.0
CQ64 2 3_64 6.28393E-15
CD64 3_64 V_out 8.329000000000002E-14
Sw64 3_64 V_out 4_64 0 switch
RS64_G 4_64 0 1
RQ65 2 3_65 143784.0
CQ65 2 3_65 6.28393E-15
CD65 3_65 V_out 8.329000000000002E-14
Sw65 3_65 V_out 4_65 0 switch
RS65_G 4_65 0 1
RQ66 2 3_66 143784.0
CQ66 2 3_66 6.28393E-15
CD66 3_66 V_out 8.329000000000002E-14
Sw66 3_66 V_out 4_66 0 switch
RS66_G 4_66 0 1
RQ67 2 3_67 143784.0
CQ67 2 3_67 6.28393E-15
CD67 3_67 V_out 8.329000000000002E-14
Sw67 3_67 V_out 4_67 0 switch
RS67_G 4_67 0 1
RQ68 2 3_68 143784.0
CQ68 2 3_68 6.28393E-15
CD68 3_68 V_out 8.329000000000002E-14
Sw68 3_68 V_out 4_68 0 switch
RS68_G 4_68 0 1
RQ69 2 3_69 143784.0
CQ69 2 3_69 6.28393E-15
CD69 3_69 V_out 8.329000000000002E-14
Sw69 3_69 V_out 4_69 0 switch
RS69_G 4_69 0 1
RQ70 2 3_70 143784.0
CQ70 2 3_70 6.28393E-15
CD70 3_70 V_out 8.329000000000002E-14
Sw70 3_70 V_out 4_70 0 switch
RS70_G 4_70 0 1
RQ71 2 3_71 143784.0
CQ71 2 3_71 6.28393E-15
CD71 3_71 V_out 8.329000000000002E-14
Sw71 3_71 V_out 4_71 0 switch
RS71_G 4_71 0 1
RQ72 2 3_72 143784.0
CQ72 2 3_72 6.28393E-15
CD72 3_72 V_out 8.329000000000002E-14
Sw72 3_72 V_out 4_72 0 switch
RS72_G 4_72 0 1
RQ73 2 3_73 143784.0
CQ73 2 3_73 6.28393E-15
CD73 3_73 V_out 8.329000000000002E-14
Sw73 3_73 V_out 4_73 0 switch
RS73_G 4_73 0 1
RQ74 2 3_74 143784.0
CQ74 2 3_74 6.28393E-15
CD74 3_74 V_out 8.329000000000002E-14
Sw74 3_74 V_out 4_74 0 switch
RS74_G 4_74 0 1
RQ75 2 3_75 143784.0
CQ75 2 3_75 6.28393E-15
CD75 3_75 V_out 8.329000000000002E-14
Sw75 3_75 V_out 4_75 0 switch
RS75_G 4_75 0 1
RQ76 2 3_76 143784.0
CQ76 2 3_76 6.28393E-15
CD76 3_76 V_out 8.329000000000002E-14
Sw76 3_76 V_out 4_76 0 switch
RS76_G 4_76 0 1
RQ77 2 3_77 143784.0
CQ77 2 3_77 6.28393E-15
CD77 3_77 V_out 8.329000000000002E-14
Sw77 3_77 V_out 4_77 0 switch
RS77_G 4_77 0 1
RQ78 2 3_78 143784.0
CQ78 2 3_78 6.28393E-15
CD78 3_78 V_out 8.329000000000002E-14
Sw78 3_78 V_out 4_78 0 switch
RS78_G 4_78 0 1
RQ79 2 3_79 143784.0
CQ79 2 3_79 6.28393E-15
CD79 3_79 V_out 8.329000000000002E-14
Sw79 3_79 V_out 4_79 0 switch
RS79_G 4_79 0 1
RQ80 2 3_80 143784.0
CQ80 2 3_80 6.28393E-15
CD80 3_80 V_out 8.329000000000002E-14
Sw80 3_80 V_out 4_80 0 switch
RS80_G 4_80 0 1
RQ81 2 3_81 143784.0
CQ81 2 3_81 6.28393E-15
CD81 3_81 V_out 8.329000000000002E-14
Sw81 3_81 V_out 4_81 0 switch
RS81_G 4_81 0 1
RQ82 2 3_82 143784.0
CQ82 2 3_82 6.28393E-15
CD82 3_82 V_out 8.329000000000002E-14
Sw82 3_82 V_out 4_82 0 switch
RS82_G 4_82 0 1
RQ83 2 3_83 143784.0
CQ83 2 3_83 6.28393E-15
CD83 3_83 V_out 8.329000000000002E-14
Sw83 3_83 V_out 4_83 0 switch
RS83_G 4_83 0 1
RQ84 2 3_84 143784.0
CQ84 2 3_84 6.28393E-15
CD84 3_84 V_out 8.329000000000002E-14
Sw84 3_84 V_out 4_84 0 switch
RS84_G 4_84 0 1
RQ85 2 3_85 143784.0
CQ85 2 3_85 6.28393E-15
CD85 3_85 V_out 8.329000000000002E-14
Sw85 3_85 V_out 4_85 0 switch
RS85_G 4_85 0 1
RQ86 2 3_86 143784.0
CQ86 2 3_86 6.28393E-15
CD86 3_86 V_out 8.329000000000002E-14
Sw86 3_86 V_out 4_86 0 switch
RS86_G 4_86 0 1
RQ87 2 3_87 143784.0
CQ87 2 3_87 6.28393E-15
CD87 3_87 V_out 8.329000000000002E-14
Sw87 3_87 V_out 4_87 0 switch
RS87_G 4_87 0 1
RQ88 2 3_88 143784.0
CQ88 2 3_88 6.28393E-15
CD88 3_88 V_out 8.329000000000002E-14
Sw88 3_88 V_out 4_88 0 switch
RS88_G 4_88 0 1
RQ89 2 3_89 143784.0
CQ89 2 3_89 6.28393E-15
CD89 3_89 V_out 8.329000000000002E-14
Sw89 3_89 V_out 4_89 0 switch
RS89_G 4_89 0 1
RQ90 2 3_90 143784.0
CQ90 2 3_90 6.28393E-15
CD90 3_90 V_out 8.329000000000002E-14
Sw90 3_90 V_out 4_90 0 switch
RS90_G 4_90 0 1
RQ91 2 3_91 143784.0
CQ91 2 3_91 6.28393E-15
CD91 3_91 V_out 8.329000000000002E-14
Sw91 3_91 V_out 4_91 0 switch
RS91_G 4_91 0 1
RQ92 2 3_92 143784.0
CQ92 2 3_92 6.28393E-15
CD92 3_92 V_out 8.329000000000002E-14
Sw92 3_92 V_out 4_92 0 switch
RS92_G 4_92 0 1
RQ93 2 3_93 143784.0
CQ93 2 3_93 6.28393E-15
CD93 3_93 V_out 8.329000000000002E-14
Sw93 3_93 V_out 4_93 0 switch
RS93_G 4_93 0 1
RQ94 2 3_94 143784.0
CQ94 2 3_94 6.28393E-15
CD94 3_94 V_out 8.329000000000002E-14
Sw94 3_94 V_out 4_94 0 switch
RS94_G 4_94 0 1
RQ95 2 3_95 143784.0
CQ95 2 3_95 6.28393E-15
CD95 3_95 V_out 8.329000000000002E-14
Sw95 3_95 V_out 4_95 0 switch
RS95_G 4_95 0 1
RQ96 2 3_96 143784.0
CQ96 2 3_96 6.28393E-15
CD96 3_96 V_out 8.329000000000002E-14
Sw96 3_96 V_out 4_96 0 switch
RS96_G 4_96 0 1
RQ97 2 3_97 143784.0
CQ97 2 3_97 6.28393E-15
CD97 3_97 V_out 8.329000000000002E-14
Sw97 3_97 V_out 4_97 0 switch
RS97_G 4_97 0 1
RQ98 2 3_98 143784.0
CQ98 2 3_98 6.28393E-15
CD98 3_98 V_out 8.329000000000002E-14
Sw98 3_98 V_out 4_98 0 switch
RS98_G 4_98 0 1
RQ99 2 3_99 143784.0
CQ99 2 3_99 6.28393E-15
CD99 3_99 V_out 8.329000000000002E-14
Sw99 3_99 V_out 4_99 0 switch
RS99_G 4_99 0 1
RQ100 2 3_100 143784.0
CQ100 2 3_100 6.28393E-15
CD100 3_100 V_out 8.329000000000002E-14
Sw100 3_100 V_out 4_100 0 switch
RS100_G 4_100 0 1
RQ101 2 3_101 143784.0
CQ101 2 3_101 6.28393E-15
CD101 3_101 V_out 8.329000000000002E-14
Sw101 3_101 V_out 4_101 0 switch
RS101_G 4_101 0 1
RQ102 2 3_102 143784.0
CQ102 2 3_102 6.28393E-15
CD102 3_102 V_out 8.329000000000002E-14
Sw102 3_102 V_out 4_102 0 switch
RS102_G 4_102 0 1
RQ103 2 3_103 143784.0
CQ103 2 3_103 6.28393E-15
CD103 3_103 V_out 8.329000000000002E-14
Sw103 3_103 V_out 4_103 0 switch
RS103_G 4_103 0 1
RQ104 2 3_104 143784.0
CQ104 2 3_104 6.28393E-15
CD104 3_104 V_out 8.329000000000002E-14
Sw104 3_104 V_out 4_104 0 switch
RS104_G 4_104 0 1
RQ105 2 3_105 143784.0
CQ105 2 3_105 6.28393E-15
CD105 3_105 V_out 8.329000000000002E-14
Sw105 3_105 V_out 4_105 0 switch
RS105_G 4_105 0 1
RQ106 2 3_106 143784.0
CQ106 2 3_106 6.28393E-15
CD106 3_106 V_out 8.329000000000002E-14
Sw106 3_106 V_out 4_106 0 switch
RS106_G 4_106 0 1
RQ107 2 3_107 143784.0
CQ107 2 3_107 6.28393E-15
CD107 3_107 V_out 8.329000000000002E-14
Sw107 3_107 V_out 4_107 0 switch
RS107_G 4_107 0 1
RQ108 2 3_108 143784.0
CQ108 2 3_108 6.28393E-15
CD108 3_108 V_out 8.329000000000002E-14
Sw108 3_108 V_out 4_108 0 switch
RS108_G 4_108 0 1
RQ109 2 3_109 143784.0
CQ109 2 3_109 6.28393E-15
CD109 3_109 V_out 8.329000000000002E-14
Sw109 3_109 V_out 4_109 0 switch
RS109_G 4_109 0 1
RQ110 2 3_110 143784.0
CQ110 2 3_110 6.28393E-15
CD110 3_110 V_out 8.329000000000002E-14
Sw110 3_110 V_out 4_110 0 switch
RS110_G 4_110 0 1
RQ111 2 3_111 143784.0
CQ111 2 3_111 6.28393E-15
CD111 3_111 V_out 8.329000000000002E-14
Sw111 3_111 V_out 4_111 0 switch
RS111_G 4_111 0 1
RQ112 2 3_112 143784.0
CQ112 2 3_112 6.28393E-15
CD112 3_112 V_out 8.329000000000002E-14
Sw112 3_112 V_out 4_112 0 switch
RS112_G 4_112 0 1
RQ113 2 3_113 143784.0
CQ113 2 3_113 6.28393E-15
CD113 3_113 V_out 8.329000000000002E-14
Sw113 3_113 V_out 4_113 0 switch
RS113_G 4_113 0 1
RQ114 2 3_114 143784.0
CQ114 2 3_114 6.28393E-15
CD114 3_114 V_out 8.329000000000002E-14
Sw114 3_114 V_out 4_114 0 switch
RS114_G 4_114 0 1
RQ115 2 3_115 143784.0
CQ115 2 3_115 6.28393E-15
CD115 3_115 V_out 8.329000000000002E-14
Sw115 3_115 V_out 4_115 0 switch
RS115_G 4_115 0 1
RQ116 2 3_116 143784.0
CQ116 2 3_116 6.28393E-15
CD116 3_116 V_out 8.329000000000002E-14
Sw116 3_116 V_out 4_116 0 switch
RS116_G 4_116 0 1
RQ117 2 3_117 143784.0
CQ117 2 3_117 6.28393E-15
CD117 3_117 V_out 8.329000000000002E-14
Sw117 3_117 V_out 4_117 0 switch
RS117_G 4_117 0 1
RQ118 2 3_118 143784.0
CQ118 2 3_118 6.28393E-15
CD118 3_118 V_out 8.329000000000002E-14
Sw118 3_118 V_out 4_118 0 switch
RS118_G 4_118 0 1
RQ119 2 3_119 143784.0
CQ119 2 3_119 6.28393E-15
CD119 3_119 V_out 8.329000000000002E-14
Sw119 3_119 V_out 4_119 0 switch
RS119_G 4_119 0 1
RQ120 2 3_120 143784.0
CQ120 2 3_120 6.28393E-15
CD120 3_120 V_out 8.329000000000002E-14
Sw120 3_120 V_out 4_120 0 switch
RS120_G 4_120 0 1
RQ121 2 3_121 143784.0
CQ121 2 3_121 6.28393E-15
CD121 3_121 V_out 8.329000000000002E-14
Sw121 3_121 V_out 4_121 0 switch
RS121_G 4_121 0 1
RQ122 2 3_122 143784.0
CQ122 2 3_122 6.28393E-15
CD122 3_122 V_out 8.329000000000002E-14
Sw122 3_122 V_out 4_122 0 switch
RS122_G 4_122 0 1
RQ123 2 3_123 143784.0
CQ123 2 3_123 6.28393E-15
CD123 3_123 V_out 8.329000000000002E-14
Sw123 3_123 V_out 4_123 0 switch
RS123_G 4_123 0 1
RQ124 2 3_124 143784.0
CQ124 2 3_124 6.28393E-15
CD124 3_124 V_out 8.329000000000002E-14
Sw124 3_124 V_out 4_124 0 switch
RS124_G 4_124 0 1
RQ125 2 3_125 143784.0
CQ125 2 3_125 6.28393E-15
CD125 3_125 V_out 8.329000000000002E-14
Sw125 3_125 V_out 4_125 0 switch
RS125_G 4_125 0 1
RQ126 2 3_126 143784.0
CQ126 2 3_126 6.28393E-15
CD126 3_126 V_out 8.329000000000002E-14
Sw126 3_126 V_out 4_126 0 switch
RS126_G 4_126 0 1
RQ127 2 3_127 143784.0
CQ127 2 3_127 6.28393E-15
CD127 3_127 V_out 8.329000000000002E-14
Sw127 3_127 V_out 4_127 0 switch
RS127_G 4_127 0 1
RQ128 2 3_128 143784.0
CQ128 2 3_128 6.28393E-15
CD128 3_128 V_out 8.329000000000002E-14
Sw128 3_128 V_out 4_128 0 switch
RS128_G 4_128 0 1
RQ129 2 3_129 143784.0
CQ129 2 3_129 6.28393E-15
CD129 3_129 V_out 8.329000000000002E-14
Sw129 3_129 V_out 4_129 0 switch
RS129_G 4_129 0 1
RQ130 2 3_130 143784.0
CQ130 2 3_130 6.28393E-15
CD130 3_130 V_out 8.329000000000002E-14
Sw130 3_130 V_out 4_130 0 switch
RS130_G 4_130 0 1
RQ131 2 3_131 143784.0
CQ131 2 3_131 6.28393E-15
CD131 3_131 V_out 8.329000000000002E-14
Sw131 3_131 V_out 4_131 0 switch
RS131_G 4_131 0 1
RQ132 2 3_132 143784.0
CQ132 2 3_132 6.28393E-15
CD132 3_132 V_out 8.329000000000002E-14
Sw132 3_132 V_out 4_132 0 switch
RS132_G 4_132 0 1
RQ133 2 3_133 143784.0
CQ133 2 3_133 6.28393E-15
CD133 3_133 V_out 8.329000000000002E-14
Sw133 3_133 V_out 4_133 0 switch
RS133_G 4_133 0 1
RQ134 2 3_134 143784.0
CQ134 2 3_134 6.28393E-15
CD134 3_134 V_out 8.329000000000002E-14
Sw134 3_134 V_out 4_134 0 switch
RS134_G 4_134 0 1
RQ135 2 3_135 143784.0
CQ135 2 3_135 6.28393E-15
CD135 3_135 V_out 8.329000000000002E-14
Sw135 3_135 V_out 4_135 0 switch
RS135_G 4_135 0 1
RQ136 2 3_136 143784.0
CQ136 2 3_136 6.28393E-15
CD136 3_136 V_out 8.329000000000002E-14
Sw136 3_136 V_out 4_136 0 switch
RS136_G 4_136 0 1
RQ137 2 3_137 143784.0
CQ137 2 3_137 6.28393E-15
CD137 3_137 V_out 8.329000000000002E-14
Sw137 3_137 V_out 4_137 0 switch
RS137_G 4_137 0 1
RQ138 2 3_138 143784.0
CQ138 2 3_138 6.28393E-15
CD138 3_138 V_out 8.329000000000002E-14
Sw138 3_138 V_out 4_138 0 switch
RS138_G 4_138 0 1
RQ139 2 3_139 143784.0
CQ139 2 3_139 6.28393E-15
CD139 3_139 V_out 8.329000000000002E-14
Sw139 3_139 V_out 4_139 0 switch
RS139_G 4_139 0 1
RQ140 2 3_140 143784.0
CQ140 2 3_140 6.28393E-15
CD140 3_140 V_out 8.329000000000002E-14
Sw140 3_140 V_out 4_140 0 switch
RS140_G 4_140 0 1
RQ141 2 3_141 143784.0
CQ141 2 3_141 6.28393E-15
CD141 3_141 V_out 8.329000000000002E-14
Sw141 3_141 V_out 4_141 0 switch
RS141_G 4_141 0 1
RQ142 2 3_142 143784.0
CQ142 2 3_142 6.28393E-15
CD142 3_142 V_out 8.329000000000002E-14
Sw142 3_142 V_out 4_142 0 switch
RS142_G 4_142 0 1
RQ143 2 3_143 143784.0
CQ143 2 3_143 6.28393E-15
CD143 3_143 V_out 8.329000000000002E-14
Sw143 3_143 V_out 4_143 0 switch
RS143_G 4_143 0 1
RQ144 2 3_144 143784.0
CQ144 2 3_144 6.28393E-15
CD144 3_144 V_out 8.329000000000002E-14
Sw144 3_144 V_out 4_144 0 switch
RS144_G 4_144 0 1
RQ145 2 3_145 143784.0
CQ145 2 3_145 6.28393E-15
CD145 3_145 V_out 8.329000000000002E-14
Sw145 3_145 V_out 4_145 0 switch
RS145_G 4_145 0 1
RQ146 2 3_146 143784.0
CQ146 2 3_146 6.28393E-15
CD146 3_146 V_out 8.329000000000002E-14
Sw146 3_146 V_out 4_146 0 switch
RS146_G 4_146 0 1
RQ147 2 3_147 143784.0
CQ147 2 3_147 6.28393E-15
CD147 3_147 V_out 8.329000000000002E-14
Sw147 3_147 V_out 4_147 0 switch
RS147_G 4_147 0 1
RQ148 2 3_148 143784.0
CQ148 2 3_148 6.28393E-15
CD148 3_148 V_out 8.329000000000002E-14
Sw148 3_148 V_out 4_148 0 switch
RS148_G 4_148 0 1
RQ149 2 3_149 143784.0
CQ149 2 3_149 6.28393E-15
CD149 3_149 V_out 8.329000000000002E-14
Sw149 3_149 V_out 4_149 0 switch
RS149_G 4_149 0 1
RQ150 2 3_150 143784.0
CQ150 2 3_150 6.28393E-15
CD150 3_150 V_out 8.329000000000002E-14
Sw150 3_150 V_out 4_150 0 switch
RS150_G 4_150 0 1
RQ151 2 3_151 143784.0
CQ151 2 3_151 6.28393E-15
CD151 3_151 V_out 8.329000000000002E-14
Sw151 3_151 V_out 4_151 0 switch
RS151_G 4_151 0 1
RQ152 2 3_152 143784.0
CQ152 2 3_152 6.28393E-15
CD152 3_152 V_out 8.329000000000002E-14
Sw152 3_152 V_out 4_152 0 switch
RS152_G 4_152 0 1
RQ153 2 3_153 143784.0
CQ153 2 3_153 6.28393E-15
CD153 3_153 V_out 8.329000000000002E-14
Sw153 3_153 V_out 4_153 0 switch
RS153_G 4_153 0 1
RQ154 2 3_154 143784.0
CQ154 2 3_154 6.28393E-15
CD154 3_154 V_out 8.329000000000002E-14
Sw154 3_154 V_out 4_154 0 switch
RS154_G 4_154 0 1
RQ155 2 3_155 143784.0
CQ155 2 3_155 6.28393E-15
CD155 3_155 V_out 8.329000000000002E-14
Sw155 3_155 V_out 4_155 0 switch
RS155_G 4_155 0 1
RQ156 2 3_156 143784.0
CQ156 2 3_156 6.28393E-15
CD156 3_156 V_out 8.329000000000002E-14
Sw156 3_156 V_out 4_156 0 switch
RS156_G 4_156 0 1
RQ157 2 3_157 143784.0
CQ157 2 3_157 6.28393E-15
CD157 3_157 V_out 8.329000000000002E-14
Sw157 3_157 V_out 4_157 0 switch
RS157_G 4_157 0 1
RQ158 2 3_158 143784.0
CQ158 2 3_158 6.28393E-15
CD158 3_158 V_out 8.329000000000002E-14
Sw158 3_158 V_out 4_158 0 switch
RS158_G 4_158 0 1
RQ159 2 3_159 143784.0
CQ159 2 3_159 6.28393E-15
CD159 3_159 V_out 8.329000000000002E-14
Sw159 3_159 V_out 4_159 0 switch
RS159_G 4_159 0 1
RQ160 2 3_160 143784.0
CQ160 2 3_160 6.28393E-15
CD160 3_160 V_out 8.329000000000002E-14
Sw160 3_160 V_out 4_160 0 switch
RS160_G 4_160 0 1
RQ161 2 3_161 143784.0
CQ161 2 3_161 6.28393E-15
CD161 3_161 V_out 8.329000000000002E-14
Sw161 3_161 V_out 4_161 0 switch
RS161_G 4_161 0 1
RQ162 2 3_162 143784.0
CQ162 2 3_162 6.28393E-15
CD162 3_162 V_out 8.329000000000002E-14
Sw162 3_162 V_out 4_162 0 switch
RS162_G 4_162 0 1
RQ163 2 3_163 143784.0
CQ163 2 3_163 6.28393E-15
CD163 3_163 V_out 8.329000000000002E-14
Sw163 3_163 V_out 4_163 0 switch
RS163_G 4_163 0 1
RQ164 2 3_164 143784.0
CQ164 2 3_164 6.28393E-15
CD164 3_164 V_out 8.329000000000002E-14
Sw164 3_164 V_out 4_164 0 switch
RS164_G 4_164 0 1
RQ165 2 3_165 143784.0
CQ165 2 3_165 6.28393E-15
CD165 3_165 V_out 8.329000000000002E-14
Sw165 3_165 V_out 4_165 0 switch
RS165_G 4_165 0 1
RQ166 2 3_166 143784.0
CQ166 2 3_166 6.28393E-15
CD166 3_166 V_out 8.329000000000002E-14
Sw166 3_166 V_out 4_166 0 switch
RS166_G 4_166 0 1
RQ167 2 3_167 143784.0
CQ167 2 3_167 6.28393E-15
CD167 3_167 V_out 8.329000000000002E-14
Sw167 3_167 V_out 4_167 0 switch
RS167_G 4_167 0 1
RQ168 2 3_168 143784.0
CQ168 2 3_168 6.28393E-15
CD168 3_168 V_out 8.329000000000002E-14
Sw168 3_168 V_out 4_168 0 switch
RS168_G 4_168 0 1
RQ169 2 3_169 143784.0
CQ169 2 3_169 6.28393E-15
CD169 3_169 V_out 8.329000000000002E-14
Sw169 3_169 V_out 4_169 0 switch
RS169_G 4_169 0 1
RQ170 2 3_170 143784.0
CQ170 2 3_170 6.28393E-15
CD170 3_170 V_out 8.329000000000002E-14
Sw170 3_170 V_out 4_170 0 switch
RS170_G 4_170 0 1
RQ171 2 3_171 143784.0
CQ171 2 3_171 6.28393E-15
CD171 3_171 V_out 8.329000000000002E-14
Sw171 3_171 V_out 4_171 0 switch
RS171_G 4_171 0 1
RQ172 2 3_172 143784.0
CQ172 2 3_172 6.28393E-15
CD172 3_172 V_out 8.329000000000002E-14
Sw172 3_172 V_out 4_172 0 switch
RS172_G 4_172 0 1
RQ173 2 3_173 143784.0
CQ173 2 3_173 6.28393E-15
CD173 3_173 V_out 8.329000000000002E-14
Sw173 3_173 V_out 4_173 0 switch
RS173_G 4_173 0 1
RQ174 2 3_174 143784.0
CQ174 2 3_174 6.28393E-15
CD174 3_174 V_out 8.329000000000002E-14
Sw174 3_174 V_out 4_174 0 switch
RS174_G 4_174 0 1
RQ175 2 3_175 143784.0
CQ175 2 3_175 6.28393E-15
CD175 3_175 V_out 8.329000000000002E-14
Sw175 3_175 V_out 4_175 0 switch
RS175_G 4_175 0 1
RQ176 2 3_176 143784.0
CQ176 2 3_176 6.28393E-15
CD176 3_176 V_out 8.329000000000002E-14
Sw176 3_176 V_out 4_176 0 switch
RS176_G 4_176 0 1
RQ177 2 3_177 143784.0
CQ177 2 3_177 6.28393E-15
CD177 3_177 V_out 8.329000000000002E-14
Sw177 3_177 V_out 4_177 0 switch
RS177_G 4_177 0 1
RQ178 2 3_178 143784.0
CQ178 2 3_178 6.28393E-15
CD178 3_178 V_out 8.329000000000002E-14
Sw178 3_178 V_out 4_178 0 switch
RS178_G 4_178 0 1
RQ179 2 3_179 143784.0
CQ179 2 3_179 6.28393E-15
CD179 3_179 V_out 8.329000000000002E-14
Sw179 3_179 V_out 4_179 0 switch
RS179_G 4_179 0 1
RQ180 2 3_180 143784.0
CQ180 2 3_180 6.28393E-15
CD180 3_180 V_out 8.329000000000002E-14
Sw180 3_180 V_out 4_180 0 switch
RS180_G 4_180 0 1
RQ181 2 3_181 143784.0
CQ181 2 3_181 6.28393E-15
CD181 3_181 V_out 8.329000000000002E-14
Sw181 3_181 V_out 4_181 0 switch
RS181_G 4_181 0 1
RQ182 2 3_182 143784.0
CQ182 2 3_182 6.28393E-15
CD182 3_182 V_out 8.329000000000002E-14
Sw182 3_182 V_out 4_182 0 switch
RS182_G 4_182 0 1
RQ183 2 3_183 143784.0
CQ183 2 3_183 6.28393E-15
CD183 3_183 V_out 8.329000000000002E-14
Sw183 3_183 V_out 4_183 0 switch
RS183_G 4_183 0 1
RQ184 2 3_184 143784.0
CQ184 2 3_184 6.28393E-15
CD184 3_184 V_out 8.329000000000002E-14
Sw184 3_184 V_out 4_184 0 switch
RS184_G 4_184 0 1
RQ185 2 3_185 143784.0
CQ185 2 3_185 6.28393E-15
CD185 3_185 V_out 8.329000000000002E-14
Sw185 3_185 V_out 4_185 0 switch
RS185_G 4_185 0 1
RQ186 2 3_186 143784.0
CQ186 2 3_186 6.28393E-15
CD186 3_186 V_out 8.329000000000002E-14
Sw186 3_186 V_out 4_186 0 switch
RS186_G 4_186 0 1
RQ187 2 3_187 143784.0
CQ187 2 3_187 6.28393E-15
CD187 3_187 V_out 8.329000000000002E-14
Sw187 3_187 V_out 4_187 0 switch
RS187_G 4_187 0 1
RQ188 2 3_188 143784.0
CQ188 2 3_188 6.28393E-15
CD188 3_188 V_out 8.329000000000002E-14
Sw188 3_188 V_out 4_188 0 switch
RS188_G 4_188 0 1
RQ189 2 3_189 143784.0
CQ189 2 3_189 6.28393E-15
CD189 3_189 V_out 8.329000000000002E-14
Sw189 3_189 V_out 4_189 0 switch
RS189_G 4_189 0 1
RQ190 2 3_190 143784.0
CQ190 2 3_190 6.28393E-15
CD190 3_190 V_out 8.329000000000002E-14
Sw190 3_190 V_out 4_190 0 switch
RS190_G 4_190 0 1
RQ191 2 3_191 143784.0
CQ191 2 3_191 6.28393E-15
CD191 3_191 V_out 8.329000000000002E-14
Sw191 3_191 V_out 4_191 0 switch
RS191_G 4_191 0 1
RQ192 2 3_192 143784.0
CQ192 2 3_192 6.28393E-15
CD192 3_192 V_out 8.329000000000002E-14
Sw192 3_192 V_out 4_192 0 switch
RS192_G 4_192 0 1
RQ193 2 3_193 143784.0
CQ193 2 3_193 6.28393E-15
CD193 3_193 V_out 8.329000000000002E-14
Sw193 3_193 V_out 4_193 0 switch
RS193_G 4_193 0 1
RQ194 2 3_194 143784.0
CQ194 2 3_194 6.28393E-15
CD194 3_194 V_out 8.329000000000002E-14
Sw194 3_194 V_out 4_194 0 switch
RS194_G 4_194 0 1
RQ195 2 3_195 143784.0
CQ195 2 3_195 6.28393E-15
CD195 3_195 V_out 8.329000000000002E-14
Sw195 3_195 V_out 4_195 0 switch
RS195_G 4_195 0 1
RQ196 2 3_196 143784.0
CQ196 2 3_196 6.28393E-15
CD196 3_196 V_out 8.329000000000002E-14
Sw196 3_196 V_out 4_196 0 switch
RS196_G 4_196 0 1
RQ197 2 3_197 143784.0
CQ197 2 3_197 6.28393E-15
CD197 3_197 V_out 8.329000000000002E-14
Sw197 3_197 V_out 4_197 0 switch
RS197_G 4_197 0 1
RQ198 2 3_198 143784.0
CQ198 2 3_198 6.28393E-15
CD198 3_198 V_out 8.329000000000002E-14
Sw198 3_198 V_out 4_198 0 switch
RS198_G 4_198 0 1
RQ199 2 3_199 143784.0
CQ199 2 3_199 6.28393E-15
CD199 3_199 V_out 8.329000000000002E-14
Sw199 3_199 V_out 4_199 0 switch
RS199_G 4_199 0 1
RQ200 2 3_200 143784.0
CQ200 2 3_200 6.28393E-15
CD200 3_200 V_out 8.329000000000002E-14
Sw200 3_200 V_out 4_200 0 switch
RS200_G 4_200 0 1
RQ201 2 3_201 143784.0
CQ201 2 3_201 6.28393E-15
CD201 3_201 V_out 8.329000000000002E-14
Sw201 3_201 V_out 4_201 0 switch
RS201_G 4_201 0 1
RQ202 2 3_202 143784.0
CQ202 2 3_202 6.28393E-15
CD202 3_202 V_out 8.329000000000002E-14
Sw202 3_202 V_out 4_202 0 switch
RS202_G 4_202 0 1
RQ203 2 3_203 143784.0
CQ203 2 3_203 6.28393E-15
CD203 3_203 V_out 8.329000000000002E-14
Sw203 3_203 V_out 4_203 0 switch
RS203_G 4_203 0 1
RQ204 2 3_204 143784.0
CQ204 2 3_204 6.28393E-15
CD204 3_204 V_out 8.329000000000002E-14
Sw204 3_204 V_out 4_204 0 switch
RS204_G 4_204 0 1
RQ205 2 3_205 143784.0
CQ205 2 3_205 6.28393E-15
CD205 3_205 V_out 8.329000000000002E-14
Sw205 3_205 V_out 4_205 0 switch
RS205_G 4_205 0 1
RQ206 2 3_206 143784.0
CQ206 2 3_206 6.28393E-15
CD206 3_206 V_out 8.329000000000002E-14
Sw206 3_206 V_out 4_206 0 switch
RS206_G 4_206 0 1
RQ207 2 3_207 143784.0
CQ207 2 3_207 6.28393E-15
CD207 3_207 V_out 8.329000000000002E-14
Sw207 3_207 V_out 4_207 0 switch
RS207_G 4_207 0 1
RQ208 2 3_208 143784.0
CQ208 2 3_208 6.28393E-15
CD208 3_208 V_out 8.329000000000002E-14
Sw208 3_208 V_out 4_208 0 switch
RS208_G 4_208 0 1
RQ209 2 3_209 143784.0
CQ209 2 3_209 6.28393E-15
CD209 3_209 V_out 8.329000000000002E-14
Sw209 3_209 V_out 4_209 0 switch
RS209_G 4_209 0 1
RQ210 2 3_210 143784.0
CQ210 2 3_210 6.28393E-15
CD210 3_210 V_out 8.329000000000002E-14
Sw210 3_210 V_out 4_210 0 switch
RS210_G 4_210 0 1
RQ211 2 3_211 143784.0
CQ211 2 3_211 6.28393E-15
CD211 3_211 V_out 8.329000000000002E-14
Sw211 3_211 V_out 4_211 0 switch
RS211_G 4_211 0 1
RQ212 2 3_212 143784.0
CQ212 2 3_212 6.28393E-15
CD212 3_212 V_out 8.329000000000002E-14
Sw212 3_212 V_out 4_212 0 switch
RS212_G 4_212 0 1
RQ213 2 3_213 143784.0
CQ213 2 3_213 6.28393E-15
CD213 3_213 V_out 8.329000000000002E-14
Sw213 3_213 V_out 4_213 0 switch
RS213_G 4_213 0 1
RQ214 2 3_214 143784.0
CQ214 2 3_214 6.28393E-15
CD214 3_214 V_out 8.329000000000002E-14
Sw214 3_214 V_out 4_214 0 switch
RS214_G 4_214 0 1
RQ215 2 3_215 143784.0
CQ215 2 3_215 6.28393E-15
CD215 3_215 V_out 8.329000000000002E-14
Sw215 3_215 V_out 4_215 0 switch
RS215_G 4_215 0 1
RQ216 2 3_216 143784.0
CQ216 2 3_216 6.28393E-15