* gnetlist -g spice-sdb -o test.net test.sch
*********************************************************
* Spice file generated by gnetlist                      *
* spice-sdb version 4.28.2007 by SDB --                 *
* provides advanced spice netlisting capability.        *
* Documentation at http://www.brorson.com/gEDA/SPICE/   *
*********************************************************
*vvvvvvvv  Included SPICE model from ./MAX4040.cir vvvvvvvv
* MAX4040 MACRO MODEL, SINGLE-POLE 
* connections:      non-inverting input
*                   |   inverting input
*                   |   |   vcc
*                   |   |   |	vee
*		    |   |   |   |   output
*		    |   |   |   |   |
.SUBCKT MAX4040	    1   2   0	0   6
* INPUT IMPEDANCE
RIN	1	2	44k
* DC GAIN=20K AND POLE1=4.5Hz
* UNITY GAIN = DCGAIN X POLE1 = 90kHz
EGAIN	3 0	1 2	20k
RP1	3	4	1K
CP1	4	0	35.4uF
* OUTPUT BUFFER AND RESISTANCE
EBUFFER	5 0	4 0	1
ROUT	5	6	100
.ENDS

*^^^^^^^^  End of included SPICE model from ./MAX4040.cir ^^^^^^^^
*
*==============  Begin SPICE netlist of main design ============
Rout output 0 10k  
Vin input 0 dc 0 ac 1
Xamp input 0 unconnected_pin-1 unconnected_pin-2 output MAX4040
.end
